PyDSS/api/src/tmp_pydss_project/project1/DSSfiles/218672ac-d416-4e9f-8578-0d2a531aa33c_distribution_federate/315027be-b835-4d3d-8ded-53fe35ed515c_distribution_federate/Loads.dss
New Load.load_p6ulv972_1 conn=wye bus1=p6ulv972.1 kV=0.12 Vminpu=0.8 Vmaxpu=1.2 model=1 kW=1.460015 kvar=0.29493732889341784 Phases=1

New Load.load_p6ulv972_2 conn=wye bus1=p6ulv972.2 kV=0.12 Vminpu=0.8 Vmaxpu=1.2 model=1 kW=1.460015 kvar=0.29493732889341784 Phases=1

New Load.load_p6ulv973_1 conn=wye bus1=p6ulv973.1 kV=0.12 Vminpu=0.8 Vmaxpu=1.2 model=1 kW=1.82502 kvar=0.3696301078868553 Phases=1

New Load.load_p6ulv973_2 conn=wye bus1=p6ulv973.2 kV=0.12 Vminpu=0.8 Vmaxpu=1.2 model=1 kW=1.82502 kvar=0.3696301078868553 Phases=1

New Load.load_p6ulv2310_1 conn=wye bus1=p6ulv2310.1 kV=0.12 Vminpu=0.8 Vmaxpu=1.2 model=1 kW=0.46500450000000004 kvar=0.09490870885878398 Phases=1

New Load.load_p6ulv2310_2 conn=wye bus1=p6ulv2310.2 kV=0.12 Vminpu=0.8 Vmaxpu=1.2 model=1 kW=0.46500450000000004 kvar=0.09490870885878398 Phases=1

New Load.load_p6ulv2311_1 conn=wye bus1=p6ulv2311.1 kV=0.12 Vminpu=0.8 Vmaxpu=1.2 model=1 kW=1.320015 kvar=0.27010552564230456 Phases=1

New Load.load_p6ulv2311_2 conn=wye bus1=p6ulv2311.2 kV=0.12 Vminpu=0.8 Vmaxpu=1.2 model=1 kW=1.320015 kvar=0.27010552564230456 Phases=1

New Load.load_p6ulv2312_1 conn=wye bus1=p6ulv2312.1 kV=0.12 Vminpu=0.8 Vmaxpu=1.2 model=1 kW=0.96001 kvar=0.19493834479525043 Phases=1

New Load.load_p6ulv2312_2 conn=wye bus1=p6ulv2312.2 kV=0.12 Vminpu=0.8 Vmaxpu=1.2 model=1 kW=0.96001 kvar=0.19493834479525043 Phases=1

New Load.load_p6ulv2313_1 conn=wye bus1=p6ulv2313.1 kV=0.12 Vminpu=0.8 Vmaxpu=1.2 model=1 kW=1.23501 kvar=0.2501325352825422 Phases=1

New Load.load_p6ulv2313_2 conn=wye bus1=p6ulv2313.2 kV=0.12 Vminpu=0.8 Vmaxpu=1.2 model=1 kW=1.23501 kvar=0.2501325352825422 Phases=1

New Load.load_p6ulv2314_1 conn=wye bus1=p6ulv2314.1 kV=0.12 Vminpu=0.8 Vmaxpu=1.2 model=1 kW=1.490015 kvar=0.30021351863737744 Phases=1

New Load.load_p6ulv2314_2 conn=wye bus1=p6ulv2314.2 kV=0.12 Vminpu=0.8 Vmaxpu=1.2 model=1 kW=1.490015 kvar=0.30021351863737744 Phases=1

New Load.load_p6ulv2315_1 conn=wye bus1=p6ulv2315.1 kV=0.12 Vminpu=0.8 Vmaxpu=1.2 model=1 kW=0.78501 kvar=0.1598133620430056 Phases=1

New Load.load_p6ulv2315_2 conn=wye bus1=p6ulv2315.2 kV=0.12 Vminpu=0.8 Vmaxpu=1.2 model=1 kW=0.78501 kvar=0.1598133620430056 Phases=1

New Load.load_p6ulv2316_1 conn=wye bus1=p6ulv2316.1 kV=0.12 Vminpu=0.8 Vmaxpu=1.2 model=1 kW=1.21001 kvar=0.24506916463609923 Phases=1

New Load.load_p6ulv2316_2 conn=wye bus1=p6ulv2316.2 kV=0.12 Vminpu=0.8 Vmaxpu=1.2 model=1 kW=1.21001 kvar=0.24506916463609923 Phases=1

New Load.load_p6ulv2321_1 conn=wye bus1=p6ulv2321.1 kV=0.12 Vminpu=0.8 Vmaxpu=1.2 model=1 kW=0.745005 kvar=0.15010625560980215 Phases=1

New Load.load_p6ulv2321_2 conn=wye bus1=p6ulv2321.2 kV=0.12 Vminpu=0.8 Vmaxpu=1.2 model=1 kW=0.745005 kvar=0.15010625560980215 Phases=1

New Load.load_p6ulv2322 conn=wye bus1=p6ulv2322.1.2.3 kV=0.48 Vminpu=0.8 Vmaxpu=1.2 model=1 kW=132.761 kvar=26.95827084443104 Phases=3

New Load.load_p6ulv2327_1 conn=wye bus1=p6ulv2327.1 kV=0.12 Vminpu=0.8 Vmaxpu=1.2 model=1 kW=1.22501 kvar=0.2500279404588535 Phases=1

New Load.load_p6ulv2327_2 conn=wye bus1=p6ulv2327.2 kV=0.12 Vminpu=0.8 Vmaxpu=1.2 model=1 kW=1.22501 kvar=0.2500279404588535 Phases=1

New Load.load_p6ulv2330_1 conn=wye bus1=p6ulv2330.1 kV=0.12 Vminpu=0.8 Vmaxpu=1.2 model=1 kW=0.91001 kvar=0.18478541176355026 Phases=1

New Load.load_p6ulv2330_2 conn=wye bus1=p6ulv2330.2 kV=0.12 Vminpu=0.8 Vmaxpu=1.2 model=1 kW=0.91001 kvar=0.18478541176355026 Phases=1

New Load.load_p6ulv2331_1 conn=wye bus1=p6ulv2331.1 kV=0.12 Vminpu=0.8 Vmaxpu=1.2 model=1 kW=0.95001 kvar=0.1948871509057869 Phases=1

New Load.load_p6ulv2331_2 conn=wye bus1=p6ulv2331.2 kV=0.12 Vminpu=0.8 Vmaxpu=1.2 model=1 kW=0.95001 kvar=0.1948871509057869 Phases=1

New Load.load_p6ulv2332_1 conn=wye bus1=p6ulv2332.1 kV=0.12 Vminpu=0.8 Vmaxpu=1.2 model=1 kW=0.9950100000000001 kvar=0.19995332825032197 Phases=1

New Load.load_p6ulv2332_2 conn=wye bus1=p6ulv2332.2 kV=0.12 Vminpu=0.8 Vmaxpu=1.2 model=1 kW=0.9950100000000001 kvar=0.19995332825032197 Phases=1

New Load.load_p6ulv2333_1 conn=wye bus1=p6ulv2333.1 kV=0.12 Vminpu=0.8 Vmaxpu=1.2 model=1 kW=0.565005 kvar=0.11502445653062815 Phases=1

New Load.load_p6ulv2333_2 conn=wye bus1=p6ulv2333.2 kV=0.12 Vminpu=0.8 Vmaxpu=1.2 model=1 kW=0.565005 kvar=0.11502445653062815 Phases=1

New Load.load_p6ulv2334_1 conn=wye bus1=p6ulv2334.1 kV=0.12 Vminpu=0.8 Vmaxpu=1.2 model=1 kW=0.4300045 kvar=0.08998040034740605 Phases=1

New Load.load_p6ulv2334_2 conn=wye bus1=p6ulv2334.2 kV=0.12 Vminpu=0.8 Vmaxpu=1.2 model=1 kW=0.4300045 kvar=0.08998040034740605 Phases=1

New Load.load_p6ulv2335_1 conn=wye bus1=p6ulv2335.1 kV=0.12 Vminpu=0.8 Vmaxpu=1.2 model=1 kW=0.680005 kvar=0.13984996089752658 Phases=1

New Load.load_p6ulv2335_2 conn=wye bus1=p6ulv2335.2 kV=0.12 Vminpu=0.8 Vmaxpu=1.2 model=1 kW=0.680005 kvar=0.13984996089752658 Phases=1

New Load.load_p6ulv2336_1 conn=wye bus1=p6ulv2336.1 kV=0.12 Vminpu=0.8 Vmaxpu=1.2 model=1 kW=0.81501 kvar=0.1650679084223 Phases=1

New Load.load_p6ulv2336_2 conn=wye bus1=p6ulv2336.2 kV=0.12 Vminpu=0.8 Vmaxpu=1.2 model=1 kW=0.81501 kvar=0.1650679084223 Phases=1

New Load.load_p6ulv2337_1 conn=wye bus1=p6ulv2337.1 kV=0.12 Vminpu=0.8 Vmaxpu=1.2 model=1 kW=0.700005 kvar=0.1399292497209331 Phases=1

New Load.load_p6ulv2337_2 conn=wye bus1=p6ulv2337.2 kV=0.12 Vminpu=0.8 Vmaxpu=1.2 model=1 kW=0.700005 kvar=0.1399292497209331 Phases=1

New Load.load_p6ulv2338_1 conn=wye bus1=p6ulv2338.1 kV=0.12 Vminpu=0.8 Vmaxpu=1.2 model=1 kW=1.23001 kvar=0.24976418316643162 Phases=1

New Load.load_p6ulv2338_2 conn=wye bus1=p6ulv2338.2 kV=0.12 Vminpu=0.8 Vmaxpu=1.2 model=1 kW=1.23001 kvar=0.24976418316643162 Phases=1

New Load.load_p6ulv2339_1 conn=wye bus1=p6ulv2339.1 kV=0.12 Vminpu=0.8 Vmaxpu=1.2 model=1 kW=0.76001 kvar=0.15512015006255728 Phases=1

New Load.load_p6ulv2339_2 conn=wye bus1=p6ulv2339.2 kV=0.12 Vminpu=0.8 Vmaxpu=1.2 model=1 kW=0.76001 kvar=0.15512015006255728 Phases=1

New Load.load_p6ulv2340_1 conn=wye bus1=p6ulv2340.1 kV=0.12 Vminpu=0.8 Vmaxpu=1.2 model=1 kW=0.76501 kvar=0.154941167129414 Phases=1

New Load.load_p6ulv2340_2 conn=wye bus1=p6ulv2340.2 kV=0.12 Vminpu=0.8 Vmaxpu=1.2 model=1 kW=0.76501 kvar=0.154941167129414 Phases=1

New Load.load_p6ulv2341_1 conn=wye bus1=p6ulv2341.1 kV=0.12 Vminpu=0.8 Vmaxpu=1.2 model=1 kW=3.16003 kvar=0.6400161257551694 Phases=1

New Load.load_p6ulv2341_2 conn=wye bus1=p6ulv2341.2 kV=0.12 Vminpu=0.8 Vmaxpu=1.2 model=1 kW=3.16003 kvar=0.6400161257551694 Phases=1

New Load.load_p6ulv2342_1 conn=wye bus1=p6ulv2342.1 kV=0.12 Vminpu=0.8 Vmaxpu=1.2 model=1 kW=1.22501 kvar=0.2500279404588535 Phases=1

New Load.load_p6ulv2342_2 conn=wye bus1=p6ulv2342.2 kV=0.12 Vminpu=0.8 Vmaxpu=1.2 model=1 kW=1.22501 kvar=0.2500279404588535 Phases=1

New Load.load_p6ulv2343_1 conn=wye bus1=p6ulv2343.1 kV=0.12 Vminpu=0.8 Vmaxpu=1.2 model=1 kW=0.485005 kvar=0.09999689370179113 Phases=1

New Load.load_p6ulv2343_2 conn=wye bus1=p6ulv2343.2 kV=0.12 Vminpu=0.8 Vmaxpu=1.2 model=1 kW=0.485005 kvar=0.09999689370179113 Phases=1

New Load.load_p6ulv2344_1 conn=wye bus1=p6ulv2344.1 kV=0.12 Vminpu=0.8 Vmaxpu=1.2 model=1 kW=0.81001 kvar=0.16490289472548758 Phases=1

New Load.load_p6ulv2344_2 conn=wye bus1=p6ulv2344.2 kV=0.12 Vminpu=0.8 Vmaxpu=1.2 model=1 kW=0.81001 kvar=0.16490289472548758 Phases=1

New Load.load_p6ulv2345_1 conn=wye bus1=p6ulv2345.1 kV=0.12 Vminpu=0.8 Vmaxpu=1.2 model=1 kW=0.680005 kvar=0.13984996089752658 Phases=1

New Load.load_p6ulv2345_2 conn=wye bus1=p6ulv2345.2 kV=0.12 Vminpu=0.8 Vmaxpu=1.2 model=1 kW=0.680005 kvar=0.13984996089752658 Phases=1

New Load.load_p6ulv2346_1 conn=wye bus1=p6ulv2346.1 kV=0.12 Vminpu=0.8 Vmaxpu=1.2 model=1 kW=0.710005 kvar=0.1449139907963921 Phases=1

New Load.load_p6ulv2346_2 conn=wye bus1=p6ulv2346.2 kV=0.12 Vminpu=0.8 Vmaxpu=1.2 model=1 kW=0.710005 kvar=0.1449139907963921 Phases=1

New Load.load_p6ulv2347_1 conn=wye bus1=p6ulv2347.1 kV=0.12 Vminpu=0.8 Vmaxpu=1.2 model=1 kW=1.580015 kvar=0.3200080628775847 Phases=1

New Load.load_p6ulv2347_2 conn=wye bus1=p6ulv2347.2 kV=0.12 Vminpu=0.8 Vmaxpu=1.2 model=1 kW=1.580015 kvar=0.3200080628775847 Phases=1

New Load.load_p6ulv2348_1 conn=wye bus1=p6ulv2348.1 kV=0.12 Vminpu=0.8 Vmaxpu=1.2 model=1 kW=1.10501 kvar=0.2249593803787744 Phases=1

New Load.load_p6ulv2348_2 conn=wye bus1=p6ulv2348.2 kV=0.12 Vminpu=0.8 Vmaxpu=1.2 model=1 kW=1.10501 kvar=0.2249593803787744 Phases=1

New Load.load_p6ulv2349_1 conn=wye bus1=p6ulv2349.1 kV=0.12 Vminpu=0.8 Vmaxpu=1.2 model=1 kW=0.735005 kvar=0.15001656017253706 Phases=1

New Load.load_p6ulv2349_2 conn=wye bus1=p6ulv2349.2 kV=0.12 Vminpu=0.8 Vmaxpu=1.2 model=1 kW=0.735005 kvar=0.15001656017253706 Phases=1

New Load.load_p6ulv2350_1 conn=wye bus1=p6ulv2350.1 kV=0.12 Vminpu=0.8 Vmaxpu=1.2 model=1 kW=1.0600100000000001 kvar=0.2152442108586509 Phases=1

New Load.load_p6ulv2350_2 conn=wye bus1=p6ulv2350.2 kV=0.12 Vminpu=0.8 Vmaxpu=1.2 model=1 kW=1.0600100000000001 kvar=0.2152442108586509 Phases=1

New Load.load_p6ulv2351_1 conn=wye bus1=p6ulv2351.1 kV=0.12 Vminpu=0.8 Vmaxpu=1.2 model=1 kW=0.605005 kvar=0.1199726326293307 Phases=1

New Load.load_p6ulv2351_2 conn=wye bus1=p6ulv2351.2 kV=0.12 Vminpu=0.8 Vmaxpu=1.2 model=1 kW=0.605005 kvar=0.1199726326293307 Phases=1

New Load.load_p6ulv2352_1 conn=wye bus1=p6ulv2352.1 kV=0.12 Vminpu=0.8 Vmaxpu=1.2 model=1 kW=0.84001 kvar=0.17013127906874298 Phases=1

New Load.load_p6ulv2352_2 conn=wye bus1=p6ulv2352.2 kV=0.12 Vminpu=0.8 Vmaxpu=1.2 model=1 kW=0.84001 kvar=0.17013127906874298 Phases=1

New Load.load_p6ulv2353_1 conn=wye bus1=p6ulv2353.1 kV=0.12 Vminpu=0.8 Vmaxpu=1.2 model=1 kW=0.540005 kvar=0.1799699746991311 Phases=1

New Load.load_p6ulv2353_2 conn=wye bus1=p6ulv2353.2 kV=0.12 Vminpu=0.8 Vmaxpu=1.2 model=1 kW=0.540005 kvar=0.1799699746991311 Phases=1

New Load.load_p6ulv2354_1 conn=wye bus1=p6ulv2354.1 kV=0.12 Vminpu=0.8 Vmaxpu=1.2 model=1 kW=1.05501 kvar=0.21478031501381048 Phases=1

New Load.load_p6ulv2354_2 conn=wye bus1=p6ulv2354.2 kV=0.12 Vminpu=0.8 Vmaxpu=1.2 model=1 kW=1.05501 kvar=0.21478031501381048 Phases=1

New Load.load_p6ulv2355_1 conn=wye bus1=p6ulv2355.1 kV=0.12 Vminpu=0.8 Vmaxpu=1.2 model=1 kW=0.83001 kvar=0.16983919678061932 Phases=1

New Load.load_p6ulv2355_2 conn=wye bus1=p6ulv2355.2 kV=0.12 Vminpu=0.8 Vmaxpu=1.2 model=1 kW=0.83001 kvar=0.16983919678061932 Phases=1

New Load.load_p6ulv2356_1 conn=wye bus1=p6ulv2356.1 kV=0.12 Vminpu=0.8 Vmaxpu=1.2 model=1 kW=0.9850100000000002 kvar=0.2000148113111006 Phases=1

New Load.load_p6ulv2356_2 conn=wye bus1=p6ulv2356.2 kV=0.12 Vminpu=0.8 Vmaxpu=1.2 model=1 kW=0.9850100000000002 kvar=0.2000148113111006 Phases=1

New Load.load_p6ulv2357_1 conn=wye bus1=p6ulv2357.1 kV=0.12 Vminpu=0.8 Vmaxpu=1.2 model=1 kW=0.315003 kvar=0.06494638510272123 Phases=1

New Load.load_p6ulv2357_2 conn=wye bus1=p6ulv2357.2 kV=0.12 Vminpu=0.8 Vmaxpu=1.2 model=1 kW=0.315003 kvar=0.06494638510272123 Phases=1

New Load.load_p6ulv2358_1 conn=wye bus1=p6ulv2358.1 kV=0.12 Vminpu=0.8 Vmaxpu=1.2 model=1 kW=1.93502 kvar=0.3949429517691209 Phases=1

New Load.load_p6ulv2358_2 conn=wye bus1=p6ulv2358.2 kV=0.12 Vminpu=0.8 Vmaxpu=1.2 model=1 kW=1.93502 kvar=0.3949429517691209 Phases=1

New Load.load_p6ulv2359_1 conn=wye bus1=p6ulv2359.1 kV=0.12 Vminpu=0.8 Vmaxpu=1.2 model=1 kW=0.82001 kvar=0.16478601089290207 Phases=1

New Load.load_p6ulv2359_2 conn=wye bus1=p6ulv2359.2 kV=0.12 Vminpu=0.8 Vmaxpu=1.2 model=1 kW=0.82001 kvar=0.16478601089290207 Phases=1

New Load.load_p6ulv2360_1 conn=wye bus1=p6ulv2360.1 kV=0.12 Vminpu=0.8 Vmaxpu=1.2 model=1 kW=1.340015 kvar=0.2699909854443514 Phases=1

New Load.load_p6ulv2360_2 conn=wye bus1=p6ulv2360.2 kV=0.12 Vminpu=0.8 Vmaxpu=1.2 model=1 kW=1.340015 kvar=0.2699909854443514 Phases=1

New Load.load_p6ulv2361_1 conn=wye bus1=p6ulv2361.1 kV=0.12 Vminpu=0.8 Vmaxpu=1.2 model=1 kW=1.0500100000000003 kvar=0.21485627282998776 Phases=1

New Load.load_p6ulv2361_2 conn=wye bus1=p6ulv2361.2 kV=0.12 Vminpu=0.8 Vmaxpu=1.2 model=1 kW=1.0500100000000003 kvar=0.21485627282998776 Phases=1

New Load.load_p6ulv2362_1 conn=wye bus1=p6ulv2362.1 kV=0.12 Vminpu=0.8 Vmaxpu=1.2 model=1 kW=0.705005 kvar=0.1449914657723998 Phases=1

New Load.load_p6ulv2362_2 conn=wye bus1=p6ulv2362.2 kV=0.12 Vminpu=0.8 Vmaxpu=1.2 model=1 kW=0.705005 kvar=0.1449914657723998 Phases=1

New Load.load_p6ulv2363_1 conn=wye bus1=p6ulv2363.1 kV=0.12 Vminpu=0.8 Vmaxpu=1.2 model=1 kW=1.14501 kvar=0.23488988185243842 Phases=1

New Load.load_p6ulv2363_2 conn=wye bus1=p6ulv2363.2 kV=0.12 Vminpu=0.8 Vmaxpu=1.2 model=1 kW=1.14501 kvar=0.23488988185243842 Phases=1

New Load.load_p6ulv2364_1 conn=wye bus1=p6ulv2364.1 kV=0.12 Vminpu=0.8 Vmaxpu=1.2 model=1 kW=0.84001 kvar=0.17013127906874298 Phases=1

New Load.load_p6ulv2364_2 conn=wye bus1=p6ulv2364.2 kV=0.12 Vminpu=0.8 Vmaxpu=1.2 model=1 kW=0.84001 kvar=0.17013127906874298 Phases=1

New Load.load_p6ulv2365_1 conn=wye bus1=p6ulv2365.1 kV=0.12 Vminpu=0.8 Vmaxpu=1.2 model=1 kW=0.595005 kvar=0.11988372241677617 Phases=1

New Load.load_p6ulv2365_2 conn=wye bus1=p6ulv2365.2 kV=0.12 Vminpu=0.8 Vmaxpu=1.2 model=1 kW=0.595005 kvar=0.11988372241677617 Phases=1

New Load.load_p6ulv2366_1 conn=wye bus1=p6ulv2366.1 kV=0.12 Vminpu=0.8 Vmaxpu=1.2 model=1 kW=0.88001 kvar=0.18007035042820305 Phases=1

New Load.load_p6ulv2366_2 conn=wye bus1=p6ulv2366.2 kV=0.12 Vminpu=0.8 Vmaxpu=1.2 model=1 kW=0.88001 kvar=0.18007035042820305 Phases=1

New Load.load_p6ulv2367_1 conn=wye bus1=p6ulv2367.1 kV=0.12 Vminpu=0.8 Vmaxpu=1.2 model=1 kW=0.88501 kvar=0.18017149277293337 Phases=1

New Load.load_p6ulv2367_2 conn=wye bus1=p6ulv2367.2 kV=0.12 Vminpu=0.8 Vmaxpu=1.2 model=1 kW=0.88501 kvar=0.18017149277293337 Phases=1

New Load.load_p6ulv2368_1 conn=wye bus1=p6ulv2368.1 kV=0.12 Vminpu=0.8 Vmaxpu=1.2 model=1 kW=0.6550050000000001 kvar=0.13504698994678754 Phases=1

New Load.load_p6ulv2368_2 conn=wye bus1=p6ulv2368.2 kV=0.12 Vminpu=0.8 Vmaxpu=1.2 model=1 kW=0.6550050000000001 kvar=0.13504698994678754 Phases=1

New Load.load_p6ulv2369_1 conn=wye bus1=p6ulv2369.1 kV=0.12 Vminpu=0.8 Vmaxpu=1.2 model=1 kW=0.92501 kvar=0.19023773697225912 Phases=1

New Load.load_p6ulv2369_2 conn=wye bus1=p6ulv2369.2 kV=0.12 Vminpu=0.8 Vmaxpu=1.2 model=1 kW=0.92501 kvar=0.19023773697225912 Phases=1

New Load.load_p6ulv2370_1 conn=wye bus1=p6ulv2370.1 kV=0.12 Vminpu=0.8 Vmaxpu=1.2 model=1 kW=0.680005 kvar=0.13984996089752658 Phases=1

New Load.load_p6ulv2370_2 conn=wye bus1=p6ulv2370.2 kV=0.12 Vminpu=0.8 Vmaxpu=1.2 model=1 kW=0.680005 kvar=0.13984996089752658 Phases=1

New Load.load_p6ulv2371_1 conn=wye bus1=p6ulv2371.1 kV=0.12 Vminpu=0.8 Vmaxpu=1.2 model=1 kW=0.80501 kvar=0.16514153045827676 Phases=1

New Load.load_p6ulv2371_2 conn=wye bus1=p6ulv2371.2 kV=0.12 Vminpu=0.8 Vmaxpu=1.2 model=1 kW=0.80501 kvar=0.16514153045827676 Phases=1

New Load.load_p6ulv2372_1 conn=wye bus1=p6ulv2372.1 kV=0.12 Vminpu=0.8 Vmaxpu=1.2 model=1 kW=0.480005 kvar=0.09995294943812434 Phases=1

New Load.load_p6ulv2372_2 conn=wye bus1=p6ulv2372.2 kV=0.12 Vminpu=0.8 Vmaxpu=1.2 model=1 kW=0.480005 kvar=0.09995294943812434 Phases=1

New Load.load_p6ulv2373_1 conn=wye bus1=p6ulv2373.1 kV=0.12 Vminpu=0.8 Vmaxpu=1.2 model=1 kW=0.560005 kvar=0.11488066330143384 Phases=1

New Load.load_p6ulv2373_2 conn=wye bus1=p6ulv2373.2 kV=0.12 Vminpu=0.8 Vmaxpu=1.2 model=1 kW=0.560005 kvar=0.11488066330143384 Phases=1

New Load.load_p6ulv2374_1 conn=wye bus1=p6ulv2374.1 kV=0.12 Vminpu=0.8 Vmaxpu=1.2 model=1 kW=0.5300050000000001 kvar=0.11009305635610007 Phases=1

New Load.load_p6ulv2374_2 conn=wye bus1=p6ulv2374.2 kV=0.12 Vminpu=0.8 Vmaxpu=1.2 model=1 kW=0.5300050000000001 kvar=0.11009305635610007 Phases=1

New Load.load_p6ulv2375_1 conn=wye bus1=p6ulv2375.1 kV=0.12 Vminpu=0.8 Vmaxpu=1.2 model=1 kW=0.4550045 kvar=0.0949796391471619 Phases=1

New Load.load_p6ulv2375_2 conn=wye bus1=p6ulv2375.2 kV=0.12 Vminpu=0.8 Vmaxpu=1.2 model=1 kW=0.4550045 kvar=0.0949796391471619 Phases=1

New Load.load_p6ulv2376_1 conn=wye bus1=p6ulv2376.1 kV=0.12 Vminpu=0.8 Vmaxpu=1.2 model=1 kW=0.91001 kvar=0.18478541176355026 Phases=1

New Load.load_p6ulv2376_2 conn=wye bus1=p6ulv2376.2 kV=0.12 Vminpu=0.8 Vmaxpu=1.2 model=1 kW=0.91001 kvar=0.18478541176355026 Phases=1

New Load.load_p6ulv2377_1 conn=wye bus1=p6ulv2377.1 kV=0.12 Vminpu=0.8 Vmaxpu=1.2 model=1 kW=0.590005 kvar=0.12011398921311008 Phases=1

New Load.load_p6ulv2377_2 conn=wye bus1=p6ulv2377.2 kV=0.12 Vminpu=0.8 Vmaxpu=1.2 model=1 kW=0.590005 kvar=0.12011398921311008 Phases=1

New Load.load_p6ulv2378_1 conn=wye bus1=p6ulv2378.1 kV=0.12 Vminpu=0.8 Vmaxpu=1.2 model=1 kW=0.710005 kvar=0.1449139907963921 Phases=1

New Load.load_p6ulv2378_2 conn=wye bus1=p6ulv2378.2 kV=0.12 Vminpu=0.8 Vmaxpu=1.2 model=1 kW=0.710005 kvar=0.1449139907963921 Phases=1

New Load.load_p6ulv2379_1 conn=wye bus1=p6ulv2379.1 kV=0.12 Vminpu=0.8 Vmaxpu=1.2 model=1 kW=0.77001 kvar=0.15514435189307957 Phases=1

New Load.load_p6ulv2379_2 conn=wye bus1=p6ulv2379.2 kV=0.12 Vminpu=0.8 Vmaxpu=1.2 model=1 kW=0.77001 kvar=0.15514435189307957 Phases=1

New Load.load_p6ulv2380_1 conn=wye bus1=p6ulv2380.1 kV=0.12 Vminpu=0.8 Vmaxpu=1.2 model=1 kW=0.8650100000000001 kvar=0.175194649715186 Phases=1

New Load.load_p6ulv2380_2 conn=wye bus1=p6ulv2380.2 kV=0.12 Vminpu=0.8 Vmaxpu=1.2 model=1 kW=0.8650100000000001 kvar=0.175194649715186 Phases=1

New Load.load_p6ulv2381_1 conn=wye bus1=p6ulv2381.1 kV=0.12 Vminpu=0.8 Vmaxpu=1.2 model=1 kW=0.79001 kvar=0.16000453777585702 Phases=1

New Load.load_p6ulv2381_2 conn=wye bus1=p6ulv2381.2 kV=0.12 Vminpu=0.8 Vmaxpu=1.2 model=1 kW=0.79001 kvar=0.16000453777585702 Phases=1

New Load.load_p6ulv2382_1 conn=wye bus1=p6ulv2382.1 kV=0.12 Vminpu=0.8 Vmaxpu=1.2 model=1 kW=1.20501 kvar=0.2446877166505815 Phases=1

New Load.load_p6ulv2382_2 conn=wye bus1=p6ulv2382.2 kV=0.12 Vminpu=0.8 Vmaxpu=1.2 model=1 kW=1.20501 kvar=0.2446877166505815 Phases=1

New Load.load_p6ulv2383_1 conn=wye bus1=p6ulv2383.1 kV=0.12 Vminpu=0.8 Vmaxpu=1.2 model=1 kW=0.94001 kvar=0.18989122614021203 Phases=1

New Load.load_p6ulv2383_2 conn=wye bus1=p6ulv2383.2 kV=0.12 Vminpu=0.8 Vmaxpu=1.2 model=1 kW=0.94001 kvar=0.18989122614021203 Phases=1

New Load.load_p6ulv2384_1 conn=wye bus1=p6ulv2384.1 kV=0.12 Vminpu=0.8 Vmaxpu=1.2 model=1 kW=0.91501 kvar=0.18484098129866214 Phases=1

New Load.load_p6ulv2384_2 conn=wye bus1=p6ulv2384.2 kV=0.12 Vminpu=0.8 Vmaxpu=1.2 model=1 kW=0.91501 kvar=0.18484098129866214 Phases=1

New Load.load_p6ulv2385_1 conn=wye bus1=p6ulv2385.1 kV=0.12 Vminpu=0.8 Vmaxpu=1.2 model=1 kW=0.94001 kvar=0.18989122614021203 Phases=1

New Load.load_p6ulv2385_2 conn=wye bus1=p6ulv2385.2 kV=0.12 Vminpu=0.8 Vmaxpu=1.2 model=1 kW=0.94001 kvar=0.18989122614021203 Phases=1

New Load.load_p6ulv2386_1 conn=wye bus1=p6ulv2386.1 kV=0.12 Vminpu=0.8 Vmaxpu=1.2 model=1 kW=3.445035 kvar=0.699544192937267 Phases=1

New Load.load_p6ulv2386_2 conn=wye bus1=p6ulv2386.2 kV=0.12 Vminpu=0.8 Vmaxpu=1.2 model=1 kW=3.445035 kvar=0.699544192937267 Phases=1

New Load.load_p6ulv2387_1 conn=wye bus1=p6ulv2387.1 kV=0.12 Vminpu=0.8 Vmaxpu=1.2 model=1 kW=1.725015 kvar=0.3502792354735669 Phases=1

New Load.load_p6ulv2387_2 conn=wye bus1=p6ulv2387.2 kV=0.12 Vminpu=0.8 Vmaxpu=1.2 model=1 kW=1.725015 kvar=0.3502792354735669 Phases=1

New Load.load_p6ulv2388_1 conn=wye bus1=p6ulv2388.1 kV=0.12 Vminpu=0.8 Vmaxpu=1.2 model=1 kW=1.77502 kvar=0.36043318379857026 Phases=1

New Load.load_p6ulv2388_2 conn=wye bus1=p6ulv2388.2 kV=0.12 Vminpu=0.8 Vmaxpu=1.2 model=1 kW=1.77502 kvar=0.36043318379857026 Phases=1

New Load.load_p6ulv2389_1 conn=wye bus1=p6ulv2389.1 kV=0.12 Vminpu=0.8 Vmaxpu=1.2 model=1 kW=1.00501 kvar=0.20512532994877788 Phases=1

New Load.load_p6ulv2389_2 conn=wye bus1=p6ulv2389.2 kV=0.12 Vminpu=0.8 Vmaxpu=1.2 model=1 kW=1.00501 kvar=0.20512532994877788 Phases=1

New Load.load_p6ulv2390_1 conn=wye bus1=p6ulv2390.1 kV=0.12 Vminpu=0.8 Vmaxpu=1.2 model=1 kW=1.15501 kvar=0.2351384457437382 Phases=1

New Load.load_p6ulv2390_2 conn=wye bus1=p6ulv2390.2 kV=0.12 Vminpu=0.8 Vmaxpu=1.2 model=1 kW=1.15501 kvar=0.2351384457437382 Phases=1

New Load.load_p6ulv2391_1 conn=wye bus1=p6ulv2391.1 kV=0.12 Vminpu=0.8 Vmaxpu=1.2 model=1 kW=0.83501 kvar=0.1699924274079695 Phases=1

New Load.load_p6ulv2391_2 conn=wye bus1=p6ulv2391.2 kV=0.12 Vminpu=0.8 Vmaxpu=1.2 model=1 kW=0.83501 kvar=0.1699924274079695 Phases=1

New Load.load_p6ulv2392_1 conn=wye bus1=p6ulv2392.1 kV=0.12 Vminpu=0.8 Vmaxpu=1.2 model=1 kW=1.18001 kvar=0.24022797842622015 Phases=1

New Load.load_p6ulv2392_2 conn=wye bus1=p6ulv2392.2 kV=0.12 Vminpu=0.8 Vmaxpu=1.2 model=1 kW=1.18001 kvar=0.24022797842622015 Phases=1

New Load.load_p6ulv2393_1 conn=wye bus1=p6ulv2393.1 kV=0.12 Vminpu=0.8 Vmaxpu=1.2 model=1 kW=0.3500035 kvar=0.06996482475796689 Phases=1

New Load.load_p6ulv2393_2 conn=wye bus1=p6ulv2393.2 kV=0.12 Vminpu=0.8 Vmaxpu=1.2 model=1 kW=0.3500035 kvar=0.06996482475796689 Phases=1

New Load.load_p6ulv2396_1 conn=wye bus1=p6ulv2396.1 kV=0.12 Vminpu=0.8 Vmaxpu=1.2 model=1 kW=1.490015 kvar=0.30489144804408924 Phases=1

New Load.load_p6ulv2396_2 conn=wye bus1=p6ulv2396.2 kV=0.12 Vminpu=0.8 Vmaxpu=1.2 model=1 kW=1.490015 kvar=0.30489144804408924 Phases=1

New Load.load_p6ulv2397_1 conn=wye bus1=p6ulv2397.1 kV=0.12 Vminpu=0.8 Vmaxpu=1.2 model=1 kW=1.485015 kvar=0.29998757373496765 Phases=1

New Load.load_p6ulv2397_2 conn=wye bus1=p6ulv2397.2 kV=0.12 Vminpu=0.8 Vmaxpu=1.2 model=1 kW=1.485015 kvar=0.29998757373496765 Phases=1

New Load.load_p6ulv2398_1 conn=wye bus1=p6ulv2398.1 kV=0.12 Vminpu=0.8 Vmaxpu=1.2 model=1 kW=0.98001 kvar=0.20002276057263293 Phases=1

New Load.load_p6ulv2398_2 conn=wye bus1=p6ulv2398.2 kV=0.12 Vminpu=0.8 Vmaxpu=1.2 model=1 kW=0.98001 kvar=0.20002276057263293 Phases=1

New Load.load_p6ulv2399_1 conn=wye bus1=p6ulv2399.1 kV=0.12 Vminpu=0.8 Vmaxpu=1.2 model=1 kW=1.325015 kvar=0.26974828589115185 Phases=1

New Load.load_p6ulv2399_2 conn=wye bus1=p6ulv2399.2 kV=0.12 Vminpu=0.8 Vmaxpu=1.2 model=1 kW=1.325015 kvar=0.26974828589115185 Phases=1

New Load.load_p6ulv2400_1 conn=wye bus1=p6ulv2400.1 kV=0.12 Vminpu=0.8 Vmaxpu=1.2 model=1 kW=1.445015 kvar=0.2949315714828044 Phases=1

New Load.load_p6ulv2400_2 conn=wye bus1=p6ulv2400.2 kV=0.12 Vminpu=0.8 Vmaxpu=1.2 model=1 kW=1.445015 kvar=0.2949315714828044 Phases=1

New Load.load_p6ulv2401_1 conn=wye bus1=p6ulv2401.1 kV=0.12 Vminpu=0.8 Vmaxpu=1.2 model=1 kW=1.445015 kvar=0.2949315714828044 Phases=1

New Load.load_p6ulv2401_2 conn=wye bus1=p6ulv2401.2 kV=0.12 Vminpu=0.8 Vmaxpu=1.2 model=1 kW=1.445015 kvar=0.2949315714828044 Phases=1

New Load.load_p6ulv2402_1 conn=wye bus1=p6ulv2402.1 kV=0.12 Vminpu=0.8 Vmaxpu=1.2 model=1 kW=0.94501 kvar=0.18990552329105911 Phases=1

New Load.load_p6ulv2402_2 conn=wye bus1=p6ulv2402.2 kV=0.12 Vminpu=0.8 Vmaxpu=1.2 model=1 kW=0.94501 kvar=0.18990552329105911 Phases=1

New Load.load_p6ulv2403_1 conn=wye bus1=p6ulv2403.1 kV=0.12 Vminpu=0.8 Vmaxpu=1.2 model=1 kW=0.94001 kvar=0.18989122614021203 Phases=1

New Load.load_p6ulv2403_2 conn=wye bus1=p6ulv2403.2 kV=0.12 Vminpu=0.8 Vmaxpu=1.2 model=1 kW=0.94001 kvar=0.18989122614021203 Phases=1

New Load.load_p6ulv2404_1 conn=wye bus1=p6ulv2404.1 kV=0.12 Vminpu=0.8 Vmaxpu=1.2 model=1 kW=1.0500100000000003 kvar=0.21485627282998776 Phases=1

New Load.load_p6ulv2404_2 conn=wye bus1=p6ulv2404.2 kV=0.12 Vminpu=0.8 Vmaxpu=1.2 model=1 kW=1.0500100000000003 kvar=0.21485627282998776 Phases=1

New Load.load_p6ulv2405_1 conn=wye bus1=p6ulv2405.1 kV=0.12 Vminpu=0.8 Vmaxpu=1.2 model=1 kW=1.555015 kvar=0.3149446922311418 Phases=1

New Load.load_p6ulv2405_2 conn=wye bus1=p6ulv2405.2 kV=0.12 Vminpu=0.8 Vmaxpu=1.2 model=1 kW=1.555015 kvar=0.3149446922311418 Phases=1

New Load.load_p6ulv2406_1 conn=wye bus1=p6ulv2406.1 kV=0.12 Vminpu=0.8 Vmaxpu=1.2 model=1 kW=1.93502 kvar=0.3949429517691209 Phases=1

New Load.load_p6ulv2406_2 conn=wye bus1=p6ulv2406.2 kV=0.12 Vminpu=0.8 Vmaxpu=1.2 model=1 kW=1.93502 kvar=0.3949429517691209 Phases=1

New Load.load_p6ulv2407_1 conn=wye bus1=p6ulv2407.1 kV=0.12 Vminpu=0.8 Vmaxpu=1.2 model=1 kW=1.13001 kvar=0.2300489130612563 Phases=1

New Load.load_p6ulv2407_2 conn=wye bus1=p6ulv2407.2 kV=0.12 Vminpu=0.8 Vmaxpu=1.2 model=1 kW=1.13001 kvar=0.2300489130612563 Phases=1

New Load.load_p6ulv2408_1 conn=wye bus1=p6ulv2408.1 kV=0.12 Vminpu=0.8 Vmaxpu=1.2 model=1 kW=1.2550150000000002 kvar=0.2548416649755849 Phases=1

New Load.load_p6ulv2408_2 conn=wye bus1=p6ulv2408.2 kV=0.12 Vminpu=0.8 Vmaxpu=1.2 model=1 kW=1.2550150000000002 kvar=0.2548416649755849 Phases=1

New Load.load_p6ulv2409_1 conn=wye bus1=p6ulv2409.1 kV=0.12 Vminpu=0.8 Vmaxpu=1.2 model=1 kW=2.01002 kvar=0.41025065989755577 Phases=1

New Load.load_p6ulv2409_2 conn=wye bus1=p6ulv2409.2 kV=0.12 Vminpu=0.8 Vmaxpu=1.2 model=1 kW=2.01002 kvar=0.41025065989755577 Phases=1

New Load.load_p6ulv2410_1 conn=wye bus1=p6ulv2410.1 kV=0.12 Vminpu=0.8 Vmaxpu=1.2 model=1 kW=0.85001 kvar=0.1699148742584558 Phases=1

New Load.load_p6ulv2410_2 conn=wye bus1=p6ulv2410.2 kV=0.12 Vminpu=0.8 Vmaxpu=1.2 model=1 kW=0.85001 kvar=0.1699148742584558 Phases=1

New Load.load_p6ulv2411_1 conn=wye bus1=p6ulv2411.1 kV=0.12 Vminpu=0.8 Vmaxpu=1.2 model=1 kW=0.745005 kvar=0.15010625560980215 Phases=1

New Load.load_p6ulv2411_2 conn=wye bus1=p6ulv2411.2 kV=0.12 Vminpu=0.8 Vmaxpu=1.2 model=1 kW=0.745005 kvar=0.15010625560980215 Phases=1

New Load.load_p6ulv2412_1 conn=wye bus1=p6ulv2412.1 kV=0.12 Vminpu=0.8 Vmaxpu=1.2 model=1 kW=0.690005 kvar=0.14011149113076612 Phases=1

New Load.load_p6ulv2412_2 conn=wye bus1=p6ulv2412.2 kV=0.12 Vminpu=0.8 Vmaxpu=1.2 model=1 kW=0.690005 kvar=0.14011149113076612 Phases=1

New Load.load_p6ulv2413_1 conn=wye bus1=p6ulv2413.1 kV=0.12 Vminpu=0.8 Vmaxpu=1.2 model=1 kW=0.81001 kvar=0.16490289472548758 Phases=1

New Load.load_p6ulv2413_2 conn=wye bus1=p6ulv2413.2 kV=0.12 Vminpu=0.8 Vmaxpu=1.2 model=1 kW=0.81001 kvar=0.16490289472548758 Phases=1

New Load.load_p6ulv2414_1 conn=wye bus1=p6ulv2414.1 kV=0.12 Vminpu=0.8 Vmaxpu=1.2 model=1 kW=0.9900100000000001 kvar=0.19999171582331182 Phases=1

New Load.load_p6ulv2414_2 conn=wye bus1=p6ulv2414.2 kV=0.12 Vminpu=0.8 Vmaxpu=1.2 model=1 kW=0.9900100000000001 kvar=0.19999171582331182 Phases=1

New Load.load_p6ulv2415_1 conn=wye bus1=p6ulv2415.1 kV=0.12 Vminpu=0.8 Vmaxpu=1.2 model=1 kW=0.505005 kvar=0.10490003665080959 Phases=1

New Load.load_p6ulv2415_2 conn=wye bus1=p6ulv2415.2 kV=0.12 Vminpu=0.8 Vmaxpu=1.2 model=1 kW=0.505005 kvar=0.10490003665080959 Phases=1

New Load.load_p6ulv2416_1 conn=wye bus1=p6ulv2416.1 kV=0.12 Vminpu=0.8 Vmaxpu=1.2 model=1 kW=0.3250035 kvar=0.06496738724963005 Phases=1

New Load.load_p6ulv2416_2 conn=wye bus1=p6ulv2416.2 kV=0.12 Vminpu=0.8 Vmaxpu=1.2 model=1 kW=0.3250035 kvar=0.06496738724963005 Phases=1

New Load.load_p6ulv2417_1 conn=wye bus1=p6ulv2417.1 kV=0.12 Vminpu=0.8 Vmaxpu=1.2 model=1 kW=0.3650035 kvar=0.0750666909838315 Phases=1

New Load.load_p6ulv2417_2 conn=wye bus1=p6ulv2417.2 kV=0.12 Vminpu=0.8 Vmaxpu=1.2 model=1 kW=0.3650035 kvar=0.0750666909838315 Phases=1

New Load.load_p6ulv2418_1 conn=wye bus1=p6ulv2418.1 kV=0.12 Vminpu=0.8 Vmaxpu=1.2 model=1 kW=0.385004 kvar=0.07997333434462686 Phases=1

New Load.load_p6ulv2418_2 conn=wye bus1=p6ulv2418.2 kV=0.12 Vminpu=0.8 Vmaxpu=1.2 model=1 kW=0.385004 kvar=0.07997333434462686 Phases=1

New Load.load_p6ulv2419_1 conn=wye bus1=p6ulv2419.1 kV=0.12 Vminpu=0.8 Vmaxpu=1.2 model=1 kW=0.3600035 kvar=0.07496466002030767 Phases=1

New Load.load_p6ulv2419_2 conn=wye bus1=p6ulv2419.2 kV=0.12 Vminpu=0.8 Vmaxpu=1.2 model=1 kW=0.3600035 kvar=0.07496466002030767 Phases=1

New Load.load_p6ulv2420_1 conn=wye bus1=p6ulv2420.1 kV=0.12 Vminpu=0.8 Vmaxpu=1.2 model=1 kW=0.2450025 kvar=0.050005690143158234 Phases=1

New Load.load_p6ulv2420_2 conn=wye bus1=p6ulv2420.2 kV=0.12 Vminpu=0.8 Vmaxpu=1.2 model=1 kW=0.2450025 kvar=0.050005690143158234 Phases=1

New Load.load_p6ulv2421_1 conn=wye bus1=p6ulv2421.1 kV=0.12 Vminpu=0.8 Vmaxpu=1.2 model=1 kW=0.2700025 kvar=0.054967461924073105 Phases=1

New Load.load_p6ulv2421_2 conn=wye bus1=p6ulv2421.2 kV=0.12 Vminpu=0.8 Vmaxpu=1.2 model=1 kW=0.2700025 kvar=0.054967461924073105 Phases=1

New Load.load_p6ulv2422_1 conn=wye bus1=p6ulv2422.1 kV=0.12 Vminpu=0.8 Vmaxpu=1.2 model=1 kW=0.79001 kvar=0.16000453777585702 Phases=1

New Load.load_p6ulv2422_2 conn=wye bus1=p6ulv2422.2 kV=0.12 Vminpu=0.8 Vmaxpu=1.2 model=1 kW=0.79001 kvar=0.16000453777585702 Phases=1

New Load.load_p6ulv2423_1 conn=wye bus1=p6ulv2423.1 kV=0.12 Vminpu=0.8 Vmaxpu=1.2 model=1 kW=0.385004 kvar=0.07997333434462686 Phases=1

New Load.load_p6ulv2423_2 conn=wye bus1=p6ulv2423.2 kV=0.12 Vminpu=0.8 Vmaxpu=1.2 model=1 kW=0.385004 kvar=0.07997333434462686 Phases=1

New Load.load_p6ulv2424_1 conn=wye bus1=p6ulv2424.1 kV=0.12 Vminpu=0.8 Vmaxpu=1.2 model=1 kW=1.260015 kvar=0.2551969186031145 Phases=1

New Load.load_p6ulv2424_2 conn=wye bus1=p6ulv2424.2 kV=0.12 Vminpu=0.8 Vmaxpu=1.2 model=1 kW=1.260015 kvar=0.2551969186031145 Phases=1

New Load.load_p6ulv2425_1 conn=wye bus1=p6ulv2425.1 kV=0.12 Vminpu=0.8 Vmaxpu=1.2 model=1 kW=0.540005 kvar=0.10993492384814621 Phases=1

New Load.load_p6ulv2425_2 conn=wye bus1=p6ulv2425.2 kV=0.12 Vminpu=0.8 Vmaxpu=1.2 model=1 kW=0.540005 kvar=0.10993492384814621 Phases=1

New Load.load_p6ulv2426_1 conn=wye bus1=p6ulv2426.1 kV=0.12 Vminpu=0.8 Vmaxpu=1.2 model=1 kW=1.445015 kvar=0.2949315714828044 Phases=1

New Load.load_p6ulv2426_2 conn=wye bus1=p6ulv2426.2 kV=0.12 Vminpu=0.8 Vmaxpu=1.2 model=1 kW=1.445015 kvar=0.2949315714828044 Phases=1

New Load.load_p6ulv2427_1 conn=wye bus1=p6ulv2427.1 kV=0.12 Vminpu=0.8 Vmaxpu=1.2 model=1 kW=0.535005 kvar=0.11002923262326189 Phases=1

New Load.load_p6ulv2427_2 conn=wye bus1=p6ulv2427.2 kV=0.12 Vminpu=0.8 Vmaxpu=1.2 model=1 kW=0.535005 kvar=0.11002923262326189 Phases=1

New Load.load_p6ulv2429 conn=wye bus1=p6ulv2429.1.2.3 kV=0.48 Vminpu=0.8 Vmaxpu=1.2 model=1 kW=56.70060000000001 kvar=11.513547893144423 Phases=3

New Load.load_p6ulv2430_1 conn=wye bus1=p6ulv2430.1 kV=0.12 Vminpu=0.8 Vmaxpu=1.2 model=1 kW=1.06501 kvar=0.21514245034796145 Phases=1

New Load.load_p6ulv2430_2 conn=wye bus1=p6ulv2430.2 kV=0.12 Vminpu=0.8 Vmaxpu=1.2 model=1 kW=1.06501 kvar=0.21514245034796145 Phases=1

New Load.load_p6ulv2433 conn=wye bus1=p6ulv2433.1.2.3 kV=0.48 Vminpu=0.8 Vmaxpu=1.2 model=1 kW=79.3008 kvar=16.10271423520505 Phases=3

New Load.load_p6ulv2434 conn=wye bus1=p6ulv2434.1.2.3 kV=0.48 Vminpu=0.8 Vmaxpu=1.2 model=1 kW=92.9509 kvar=18.874485258725272 Phases=3

New Load.load_p6ulv2439_1 conn=wye bus1=p6ulv2439.1 kV=0.12 Vminpu=0.8 Vmaxpu=1.2 model=1 kW=6.22005 kvar=1.2662859104668693 Phases=1

New Load.load_p6ulv2439_2 conn=wye bus1=p6ulv2439.2 kV=0.12 Vminpu=0.8 Vmaxpu=1.2 model=1 kW=6.22005 kvar=1.2662859104668693 Phases=1

New Load.load_p6ulv2440_1 conn=wye bus1=p6ulv2440.1 kV=0.12 Vminpu=0.8 Vmaxpu=1.2 model=1 kW=3.4100350000000006 kvar=0.6906508448937287 Phases=1

New Load.load_p6ulv2440_2 conn=wye bus1=p6ulv2440.2 kV=0.12 Vminpu=0.8 Vmaxpu=1.2 model=1 kW=3.4100350000000006 kvar=0.6906508448937287 Phases=1

New Load.load_p6ulv2441_1 conn=wye bus1=p6ulv2441.1 kV=0.12 Vminpu=0.8 Vmaxpu=1.2 model=1 kW=1.08501 kvar=0.2197523114038843 Phases=1

New Load.load_p6ulv2441_2 conn=wye bus1=p6ulv2441.2 kV=0.12 Vminpu=0.8 Vmaxpu=1.2 model=1 kW=1.08501 kvar=0.2197523114038843 Phases=1

New Load.load_p6ulv2443_1 conn=wye bus1=p6ulv2443.1 kV=0.12 Vminpu=0.8 Vmaxpu=1.2 model=1 kW=0.79501 kvar=0.1601814407585839 Phases=1

New Load.load_p6ulv2443_2 conn=wye bus1=p6ulv2443.2 kV=0.12 Vminpu=0.8 Vmaxpu=1.2 model=1 kW=0.79501 kvar=0.1601814407585839 Phases=1

New Load.load_p6ulv2444_1 conn=wye bus1=p6ulv2444.1 kV=0.12 Vminpu=0.8 Vmaxpu=1.2 model=1 kW=0.83501 kvar=0.1699924274079695 Phases=1

New Load.load_p6ulv2444_2 conn=wye bus1=p6ulv2444.2 kV=0.12 Vminpu=0.8 Vmaxpu=1.2 model=1 kW=0.83501 kvar=0.1699924274079695 Phases=1

New Load.load_p6ulv2445_1 conn=wye bus1=p6ulv2445.1 kV=0.12 Vminpu=0.8 Vmaxpu=1.2 model=1 kW=0.6500050000000002 kvar=0.12993437470425945 Phases=1

New Load.load_p6ulv2445_2 conn=wye bus1=p6ulv2445.2 kV=0.12 Vminpu=0.8 Vmaxpu=1.2 model=1 kW=0.6500050000000002 kvar=0.12993437470425945 Phases=1

New Load.load_p6ulv2446_1 conn=wye bus1=p6ulv2446.1 kV=0.12 Vminpu=0.8 Vmaxpu=1.2 model=1 kW=0.515005 kvar=0.10511394966246143 Phases=1

New Load.load_p6ulv2446_2 conn=wye bus1=p6ulv2446.2 kV=0.12 Vminpu=0.8 Vmaxpu=1.2 model=1 kW=0.515005 kvar=0.10511394966246143 Phases=1

New Load.load_p6ulv2447_1 conn=wye bus1=p6ulv2447.1 kV=0.12 Vminpu=0.8 Vmaxpu=1.2 model=1 kW=0.75501 kvar=0.15488441995913532 Phases=1

New Load.load_p6ulv2447_2 conn=wye bus1=p6ulv2447.2 kV=0.12 Vminpu=0.8 Vmaxpu=1.2 model=1 kW=0.75501 kvar=0.15488441995913532 Phases=1

New Load.load_p6ulv2448_1 conn=wye bus1=p6ulv2447.1 kV=0.12 Vminpu=0.8 Vmaxpu=1.2 model=1 kW=0.610005 kvar=0.12513777380057528 Phases=1

New Load.load_p6ulv2448_2 conn=wye bus1=p6ulv2447.2 kV=0.12 Vminpu=0.8 Vmaxpu=1.2 model=1 kW=0.610005 kvar=0.12513777380057528 Phases=1

New Load.load_p6ulv2449_1 conn=wye bus1=p6ulv2449.1 kV=0.12 Vminpu=0.8 Vmaxpu=1.2 model=1 kW=0.580005 kvar=0.11501512679758837 Phases=1

New Load.load_p6ulv2449_2 conn=wye bus1=p6ulv2449.2 kV=0.12 Vminpu=0.8 Vmaxpu=1.2 model=1 kW=0.580005 kvar=0.11501512679758837 Phases=1

New Load.load_p6ulv2450_1 conn=wye bus1=p6ulv2450.1 kV=0.12 Vminpu=0.8 Vmaxpu=1.2 model=1 kW=0.595005 kvar=0.11988372241677617 Phases=1

New Load.load_p6ulv2450_2 conn=wye bus1=p6ulv2450.2 kV=0.12 Vminpu=0.8 Vmaxpu=1.2 model=1 kW=0.595005 kvar=0.11988372241677617 Phases=1

New Load.load_p6ulv2451_1 conn=wye bus1=p6ulv2451.1 kV=0.12 Vminpu=0.8 Vmaxpu=1.2 model=1 kW=0.3600035 kvar=0.07496466002030767 Phases=1

New Load.load_p6ulv2451_2 conn=wye bus1=p6ulv2451.2 kV=0.12 Vminpu=0.8 Vmaxpu=1.2 model=1 kW=0.3600035 kvar=0.07496466002030767 Phases=1

New Load.load_p6ulv2452_1 conn=wye bus1=p6ulv2452.1 kV=0.12 Vminpu=0.8 Vmaxpu=1.2 model=1 kW=0.605005 kvar=0.12505014348972168 Phases=1

New Load.load_p6ulv2452_2 conn=wye bus1=p6ulv2452.2 kV=0.12 Vminpu=0.8 Vmaxpu=1.2 model=1 kW=0.605005 kvar=0.12505014348972168 Phases=1

New Load.load_p6ulv2453_1 conn=wye bus1=p6ulv2453.1 kV=0.12 Vminpu=0.8 Vmaxpu=1.2 model=1 kW=0.550005 kvar=0.10994462467091208 Phases=1

New Load.load_p6ulv2453_2 conn=wye bus1=p6ulv2453.2 kV=0.12 Vminpu=0.8 Vmaxpu=1.2 model=1 kW=0.550005 kvar=0.10994462467091208 Phases=1

New Load.load_p6ulv2454_1 conn=wye bus1=p6ulv2454.1 kV=0.12 Vminpu=0.8 Vmaxpu=1.2 model=1 kW=0.595005 kvar=0.11988372241677617 Phases=1

New Load.load_p6ulv2454_2 conn=wye bus1=p6ulv2454.2 kV=0.12 Vminpu=0.8 Vmaxpu=1.2 model=1 kW=0.595005 kvar=0.11988372241677617 Phases=1

New Load.load_p6ulv2455_1 conn=wye bus1=p6ulv2455.1 kV=0.12 Vminpu=0.8 Vmaxpu=1.2 model=1 kW=0.725005 kvar=0.14985327275107757 Phases=1

New Load.load_p6ulv2455_2 conn=wye bus1=p6ulv2455.2 kV=0.12 Vminpu=0.8 Vmaxpu=1.2 model=1 kW=0.725005 kvar=0.14985327275107757 Phases=1

New Load.load_p6ulv3610_1 conn=wye bus1=p6ulv3610.1 kV=0.12 Vminpu=0.8 Vmaxpu=1.2 model=1 kW=0.96001 kvar=0.19493834479525043 Phases=1

New Load.load_p6ulv3610_2 conn=wye bus1=p6ulv3610.2 kV=0.12 Vminpu=0.8 Vmaxpu=1.2 model=1 kW=0.96001 kvar=0.19493834479525043 Phases=1

New Load.load_p6ulv3611_1 conn=wye bus1=p6ulv3611.1 kV=0.12 Vminpu=0.8 Vmaxpu=1.2 model=1 kW=0.4350045 kvar=0.0899122736897623 Phases=1

New Load.load_p6ulv3611_2 conn=wye bus1=p6ulv3611.2 kV=0.12 Vminpu=0.8 Vmaxpu=1.2 model=1 kW=0.4350045 kvar=0.0899122736897623 Phases=1

New Load.load_p6ulv3612_1 conn=wye bus1=p6ulv3612.1 kV=0.12 Vminpu=0.8 Vmaxpu=1.2 model=1 kW=0.705005 kvar=0.1449914657723998 Phases=1

New Load.load_p6ulv3612_2 conn=wye bus1=p6ulv3612.2 kV=0.12 Vminpu=0.8 Vmaxpu=1.2 model=1 kW=0.705005 kvar=0.1449914657723998 Phases=1

New Load.load_p6ulv3613_1 conn=wye bus1=p6ulv3613.1 kV=0.12 Vminpu=0.8 Vmaxpu=1.2 model=1 kW=1.6500150000000002 kvar=0.3350498359260166 Phases=1

New Load.load_p6ulv3613_2 conn=wye bus1=p6ulv3613.2 kV=0.12 Vminpu=0.8 Vmaxpu=1.2 model=1 kW=1.6500150000000002 kvar=0.3350498359260166 Phases=1

New Load.load_p6ulv3614_1 conn=wye bus1=p6ulv3614.1 kV=0.12 Vminpu=0.8 Vmaxpu=1.2 model=1 kW=0.585005 kvar=0.12000921855100456 Phases=1

New Load.load_p6ulv3614_2 conn=wye bus1=p6ulv3614.2 kV=0.12 Vminpu=0.8 Vmaxpu=1.2 model=1 kW=0.585005 kvar=0.12000921855100456 Phases=1

New Load.load_p6ulv3624_1 conn=wye bus1=p6ulv3624.1 kV=0.12 Vminpu=0.8 Vmaxpu=1.2 model=1 kW=0.550005 kvar=0.10994462467091208 Phases=1

New Load.load_p6ulv3624_2 conn=wye bus1=p6ulv3624.2 kV=0.12 Vminpu=0.8 Vmaxpu=1.2 model=1 kW=0.550005 kvar=0.10994462467091208 Phases=1

New Load.load_p6ulv3627_1 conn=wye bus1=p6ulv3627.1 kV=0.12 Vminpu=0.8 Vmaxpu=1.2 model=1 kW=0.80001 kvar=0.15991999924178213 Phases=1

New Load.load_p6ulv3627_2 conn=wye bus1=p6ulv3627.2 kV=0.12 Vminpu=0.8 Vmaxpu=1.2 model=1 kW=0.80001 kvar=0.15991999924178213 Phases=1

New Load.load_p6ulv4274_1 conn=wye bus1=p6ulv4274.1 kV=0.12 Vminpu=0.8 Vmaxpu=1.2 model=1 kW=0.90001 kvar=0.1850962320973859 Phases=1

New Load.load_p6ulv4274_2 conn=wye bus1=p6ulv4274.2 kV=0.12 Vminpu=0.8 Vmaxpu=1.2 model=1 kW=0.90001 kvar=0.1850962320973859 Phases=1

New Load.load_p6ulv4275_1 conn=wye bus1=p6ulv4275.1 kV=0.12 Vminpu=0.8 Vmaxpu=1.2 model=1 kW=1.14001 kvar=0.23029318487261108 Phases=1

New Load.load_p6ulv4275_2 conn=wye bus1=p6ulv4275.2 kV=0.12 Vminpu=0.8 Vmaxpu=1.2 model=1 kW=1.14001 kvar=0.23029318487261108 Phases=1

New Load.load_p6ulv4276_1 conn=wye bus1=p6ulv4276.1 kV=0.12 Vminpu=0.8 Vmaxpu=1.2 model=1 kW=0.715005 kvar=0.14518795764661624 Phases=1

New Load.load_p6ulv4276_2 conn=wye bus1=p6ulv4276.2 kV=0.12 Vminpu=0.8 Vmaxpu=1.2 model=1 kW=0.715005 kvar=0.14518795764661624 Phases=1

New Load.load_p6ulv4277_1 conn=wye bus1=p6ulv4277.1 kV=0.12 Vminpu=0.8 Vmaxpu=1.2 model=1 kW=0.735005 kvar=0.15001656017253706 Phases=1

New Load.load_p6ulv4277_2 conn=wye bus1=p6ulv4277.2 kV=0.12 Vminpu=0.8 Vmaxpu=1.2 model=1 kW=0.735005 kvar=0.15001656017253706 Phases=1

New Load.load_p6ulv4278_1 conn=wye bus1=p6ulv4278.1 kV=0.12 Vminpu=0.8 Vmaxpu=1.2 model=1 kW=0.535005 kvar=0.17508707826761888 Phases=1

New Load.load_p6ulv4278_2 conn=wye bus1=p6ulv4278.2 kV=0.12 Vminpu=0.8 Vmaxpu=1.2 model=1 kW=0.535005 kvar=0.17508707826761888 Phases=1

New Load.load_p6ulv4279_1 conn=wye bus1=p6ulv4279.1 kV=0.12 Vminpu=0.8 Vmaxpu=1.2 model=1 kW=1.00001 kvar=0.3301046661521844 Phases=1

New Load.load_p6ulv4279_2 conn=wye bus1=p6ulv4279.2 kV=0.12 Vminpu=0.8 Vmaxpu=1.2 model=1 kW=1.00001 kvar=0.3301046661521844 Phases=1

New Load.load_p6ulv4280_1 conn=wye bus1=p6ulv4280.1 kV=0.12 Vminpu=0.8 Vmaxpu=1.2 model=1 kW=4.90005 kvar=0.9949975900396527 Phases=1

New Load.load_p6ulv4280_2 conn=wye bus1=p6ulv4280.2 kV=0.12 Vminpu=0.8 Vmaxpu=1.2 model=1 kW=4.90005 kvar=0.9949975900396527 Phases=1

New Load.load_p6ulv4281 conn=wye bus1=p6ulv4281.1.2.3 kV=0.48 Vminpu=0.8 Vmaxpu=1.2 model=1 kW=20.2902 kvar=4.120100835996073 Phases=3

New Load.load_p6ulv4282_1 conn=wye bus1=p6ulv4282.1 kV=0.12 Vminpu=0.8 Vmaxpu=1.2 model=1 kW=1.500015 kvar=0.3053750146685254 Phases=1

New Load.load_p6ulv4282_2 conn=wye bus1=p6ulv4282.2 kV=0.12 Vminpu=0.8 Vmaxpu=1.2 model=1 kW=1.500015 kvar=0.3053750146685254 Phases=1

New Load.load_p6ulv4283 conn=wye bus1=p6ulv4283.1.2.3 kV=0.48 Vminpu=0.8 Vmaxpu=1.2 model=1 kW=28.540300000000002 kvar=5.795355092092674 Phases=3

New Load.load_p6ulv4284 conn=wye bus1=p6ulv4284.1.2.3 kV=0.48 Vminpu=0.8 Vmaxpu=1.2 model=1 kW=26.5403 kvar=5.389237770824664 Phases=3

New Load.load_p6ulv4285_1 conn=wye bus1=p6ulv4285.1 kV=0.12 Vminpu=0.8 Vmaxpu=1.2 model=1 kW=2.18002 kvar=0.44494813165534153 Phases=1

New Load.load_p6ulv4285_2 conn=wye bus1=p6ulv4285.2 kV=0.12 Vminpu=0.8 Vmaxpu=1.2 model=1 kW=2.18002 kvar=0.44494813165534153 Phases=1

New Load.load_p6ulv4286_1 conn=wye bus1=p6ulv4286.1 kV=0.12 Vminpu=0.8 Vmaxpu=1.2 model=1 kW=2.740025 kvar=0.554950486220798 Phases=1

New Load.load_p6ulv4286_2 conn=wye bus1=p6ulv4286.2 kV=0.12 Vminpu=0.8 Vmaxpu=1.2 model=1 kW=2.740025 kvar=0.554950486220798 Phases=1

New Load.load_p6ulv4287_1 conn=wye bus1=p6ulv4287.1 kV=0.12 Vminpu=0.8 Vmaxpu=1.2 model=1 kW=4.80505 kvar=0.9757070172794221 Phases=1

New Load.load_p6ulv4287_2 conn=wye bus1=p6ulv4287.2 kV=0.12 Vminpu=0.8 Vmaxpu=1.2 model=1 kW=4.80505 kvar=0.9757070172794221 Phases=1

New Load.load_p6ulv4288_1 conn=wye bus1=p6ulv4288.1 kV=0.12 Vminpu=0.8 Vmaxpu=1.2 model=1 kW=4.615045 kvar=0.9347073354005393 Phases=1

New Load.load_p6ulv4288_2 conn=wye bus1=p6ulv4288.2 kV=0.12 Vminpu=0.8 Vmaxpu=1.2 model=1 kW=4.615045 kvar=0.9347073354005393 Phases=1

New Load.load_p6ulv4289_1 conn=wye bus1=p6ulv4289.1 kV=0.12 Vminpu=0.8 Vmaxpu=1.2 model=1 kW=5.27005 kvar=1.0701292944742342 Phases=1

New Load.load_p6ulv4289_2 conn=wye bus1=p6ulv4289.2 kV=0.12 Vminpu=0.8 Vmaxpu=1.2 model=1 kW=5.27005 kvar=1.0701292944742342 Phases=1

New Load.load_p6ulv4290_1 conn=wye bus1=p6ulv4290.1 kV=0.12 Vminpu=0.8 Vmaxpu=1.2 model=1 kW=1.435015 kvar=0.2898870840518679 Phases=1

New Load.load_p6ulv4290_2 conn=wye bus1=p6ulv4290.2 kV=0.12 Vminpu=0.8 Vmaxpu=1.2 model=1 kW=1.435015 kvar=0.2898870840518679 Phases=1

New Load.load_p6ulv4291_1 conn=wye bus1=p6ulv4291.1 kV=0.12 Vminpu=0.8 Vmaxpu=1.2 model=1 kW=0.720005 kvar=0.14506916674429784 Phases=1

New Load.load_p6ulv4291_2 conn=wye bus1=p6ulv4291.2 kV=0.12 Vminpu=0.8 Vmaxpu=1.2 model=1 kW=0.720005 kvar=0.14506916674429784 Phases=1

New Load.load_p6ulv4292_1 conn=wye bus1=p6ulv4292.1 kV=0.12 Vminpu=0.8 Vmaxpu=1.2 model=1 kW=0.665005 kvar=0.135035024614916 Phases=1

New Load.load_p6ulv4292_2 conn=wye bus1=p6ulv4292.2 kV=0.12 Vminpu=0.8 Vmaxpu=1.2 model=1 kW=0.665005 kvar=0.135035024614916 Phases=1

New Load.load_p6ulv4293_1 conn=wye bus1=p6ulv4293.1 kV=0.12 Vminpu=0.8 Vmaxpu=1.2 model=1 kW=0.420004 kvar=0.08506543699954562 Phases=1

New Load.load_p6ulv4293_2 conn=wye bus1=p6ulv4293.2 kV=0.12 Vminpu=0.8 Vmaxpu=1.2 model=1 kW=0.420004 kvar=0.08506543699954562 Phases=1

New Load.load_p6ulv4294_1 conn=wye bus1=p6ulv4294.1 kV=0.12 Vminpu=0.8 Vmaxpu=1.2 model=1 kW=0.5300050000000001 kvar=0.10510011513410371 Phases=1

New Load.load_p6ulv4294_2 conn=wye bus1=p6ulv4294.2 kV=0.12 Vminpu=0.8 Vmaxpu=1.2 model=1 kW=0.5300050000000001 kvar=0.10510011513410371 Phases=1

New Load.load_p6ulv4295_1 conn=wye bus1=p6ulv4295.1 kV=0.12 Vminpu=0.8 Vmaxpu=1.2 model=1 kW=0.615005 kvar=0.12488209158321581 Phases=1

New Load.load_p6ulv4295_2 conn=wye bus1=p6ulv4295.2 kV=0.12 Vminpu=0.8 Vmaxpu=1.2 model=1 kW=0.615005 kvar=0.12488209158321581 Phases=1

New Load.load_p6ulv4296_1 conn=wye bus1=p6ulv4296.1 kV=0.12 Vminpu=0.8 Vmaxpu=1.2 model=1 kW=1.77002 kvar=0.36034298554586675 Phases=1

New Load.load_p6ulv4296_2 conn=wye bus1=p6ulv4296.2 kV=0.12 Vminpu=0.8 Vmaxpu=1.2 model=1 kW=1.77002 kvar=0.36034298554586675 Phases=1

New Load.load_p6ulv4297_1 conn=wye bus1=p6ulv4297.1 kV=0.12 Vminpu=0.8 Vmaxpu=1.2 model=1 kW=2.00002 kvar=0.4050737024119563 Phases=1

New Load.load_p6ulv4297_2 conn=wye bus1=p6ulv4297.2 kV=0.12 Vminpu=0.8 Vmaxpu=1.2 model=1 kW=2.00002 kvar=0.4050737024119563 Phases=1

New Load.load_p6ulv4298_1 conn=wye bus1=p6ulv4298.1 kV=0.12 Vminpu=0.8 Vmaxpu=1.2 model=1 kW=2.4600250000000004 kvar=0.49952938162616645 Phases=1

New Load.load_p6ulv4298_2 conn=wye bus1=p6ulv4298.2 kV=0.12 Vminpu=0.8 Vmaxpu=1.2 model=1 kW=2.4600250000000004 kvar=0.49952938162616645 Phases=1

New Load.load_p6ulv4299_1 conn=wye bus1=p6ulv4299.1 kV=0.12 Vminpu=0.8 Vmaxpu=1.2 model=1 kW=1.665015 kvar=0.33983418199288007 Phases=1

New Load.load_p6ulv4299_2 conn=wye bus1=p6ulv4299.2 kV=0.12 Vminpu=0.8 Vmaxpu=1.2 model=1 kW=1.665015 kvar=0.33983418199288007 Phases=1

New Load.load_p6ulv4300_1 conn=wye bus1=p6ulv4300.1 kV=0.12 Vminpu=0.8 Vmaxpu=1.2 model=1 kW=1.305015 kvar=0.2649945980072851 Phases=1

New Load.load_p6ulv4300_2 conn=wye bus1=p6ulv4300.2 kV=0.12 Vminpu=0.8 Vmaxpu=1.2 model=1 kW=1.305015 kvar=0.2649945980072851 Phases=1

New Load.load_p6ulv4301_1 conn=wye bus1=p6ulv4301.1 kV=0.12 Vminpu=0.8 Vmaxpu=1.2 model=1 kW=0.85001 kvar=0.1699148742584558 Phases=1

New Load.load_p6ulv4301_2 conn=wye bus1=p6ulv4301.2 kV=0.12 Vminpu=0.8 Vmaxpu=1.2 model=1 kW=0.85001 kvar=0.1699148742584558 Phases=1

New Load.load_p6ulv4302_1 conn=wye bus1=p6ulv4302.1 kV=0.12 Vminpu=0.8 Vmaxpu=1.2 model=1 kW=0.630005 kvar=0.12989256402840574 Phases=1

New Load.load_p6ulv4302_2 conn=wye bus1=p6ulv4302.2 kV=0.12 Vminpu=0.8 Vmaxpu=1.2 model=1 kW=0.630005 kvar=0.12989256402840574 Phases=1

New Load.load_p6ulv4303_1 conn=wye bus1=p6ulv4303.1 kV=0.12 Vminpu=0.8 Vmaxpu=1.2 model=1 kW=0.685005 kvar=0.14016782808726178 Phases=1

New Load.load_p6ulv4303_2 conn=wye bus1=p6ulv4303.2 kV=0.12 Vminpu=0.8 Vmaxpu=1.2 model=1 kW=0.685005 kvar=0.14016782808726178 Phases=1

New Load.load_p6ulv4304_1 conn=wye bus1=p6ulv4304.1 kV=0.12 Vminpu=0.8 Vmaxpu=1.2 model=1 kW=3.12003 kvar=0.635179786212964 Phases=1

New Load.load_p6ulv4304_2 conn=wye bus1=p6ulv4304.2 kV=0.12 Vminpu=0.8 Vmaxpu=1.2 model=1 kW=3.12003 kvar=0.635179786212964 Phases=1

New Load.load_p6ulv4305_1 conn=wye bus1=p6ulv4305.1 kV=0.12 Vminpu=0.8 Vmaxpu=1.2 model=1 kW=2.16002 kvar=0.43973969539258484 Phases=1

New Load.load_p6ulv4305_2 conn=wye bus1=p6ulv4305.2 kV=0.12 Vminpu=0.8 Vmaxpu=1.2 model=1 kW=2.16002 kvar=0.43973969539258484 Phases=1

New Load.load_p6ulv4306_1 conn=wye bus1=p6ulv4306.1 kV=0.12 Vminpu=0.8 Vmaxpu=1.2 model=1 kW=5.26005 kvar=1.070847855459563 Phases=1

New Load.load_p6ulv4306_2 conn=wye bus1=p6ulv4306.2 kV=0.12 Vminpu=0.8 Vmaxpu=1.2 model=1 kW=5.26005 kvar=1.070847855459563 Phases=1

New Load.load_p6ulv4307_1 conn=wye bus1=p6ulv4307.1 kV=0.12 Vminpu=0.8 Vmaxpu=1.2 model=1 kW=0.33000350000000006 kvar=0.06508626818707555 Phases=1

New Load.load_p6ulv4307_2 conn=wye bus1=p6ulv4307.2 kV=0.12 Vminpu=0.8 Vmaxpu=1.2 model=1 kW=0.33000350000000006 kvar=0.06508626818707555 Phases=1

New Load.load_p6ulv4308_1 conn=wye bus1=p6ulv4308.1 kV=0.12 Vminpu=0.8 Vmaxpu=1.2 model=1 kW=1.565015 kvar=0.3202381785154648 Phases=1

New Load.load_p6ulv4308_2 conn=wye bus1=p6ulv4308.2 kV=0.12 Vminpu=0.8 Vmaxpu=1.2 model=1 kW=1.565015 kvar=0.3202381785154648 Phases=1

New Load.load_p6ulv4309_1 conn=wye bus1=p6ulv4309.1 kV=0.12 Vminpu=0.8 Vmaxpu=1.2 model=1 kW=1.80502 kvar=0.36463171775577446 Phases=1

New Load.load_p6ulv4309_2 conn=wye bus1=p6ulv4309.2 kV=0.12 Vminpu=0.8 Vmaxpu=1.2 model=1 kW=1.80502 kvar=0.36463171775577446 Phases=1

New Load.load_p6ulv4310_1 conn=wye bus1=p6ulv4310.1 kV=0.12 Vminpu=0.8 Vmaxpu=1.2 model=1 kW=1.6500150000000002 kvar=0.3350498359260166 Phases=1

New Load.load_p6ulv4310_2 conn=wye bus1=p6ulv4310.2 kV=0.12 Vminpu=0.8 Vmaxpu=1.2 model=1 kW=1.6500150000000002 kvar=0.3350498359260166 Phases=1

New Load.load_p6ulv8198_1 conn=wye bus1=p6ulv8198.1 kV=0.12 Vminpu=0.8 Vmaxpu=1.2 model=1 kW=0.610005 kvar=0.12513777380057528 Phases=1

New Load.load_p6ulv8198_2 conn=wye bus1=p6ulv8198.2 kV=0.12 Vminpu=0.8 Vmaxpu=1.2 model=1 kW=0.610005 kvar=0.12513777380057528 Phases=1

New Load.load_p6ulv8199_1 conn=wye bus1=p6ulv8199.1 kV=0.12 Vminpu=0.8 Vmaxpu=1.2 model=1 kW=0.590005 kvar=0.12011398921311008 Phases=1

New Load.load_p6ulv8199_2 conn=wye bus1=p6ulv8199.2 kV=0.12 Vminpu=0.8 Vmaxpu=1.2 model=1 kW=0.590005 kvar=0.12011398921311008 Phases=1

New Load.load_p6ulv8200_1 conn=wye bus1=p6ulv8200.1 kV=0.12 Vminpu=0.8 Vmaxpu=1.2 model=1 kW=7.13505 kvar=1.4488336965566522 Phases=1

New Load.load_p6ulv8200_2 conn=wye bus1=p6ulv8200.2 kV=0.12 Vminpu=0.8 Vmaxpu=1.2 model=1 kW=7.13505 kvar=1.4488336965566522 Phases=1

New Load.load_p6ulv8201 conn=wye bus1=p6ulv8201.1.2.3 kV=0.48 Vminpu=0.8 Vmaxpu=1.2 model=1 kW=19.6002 kvar=3.9799903601586117 Phases=3

New Load.load_p6ulv8202 conn=wye bus1=p6ulv8202.1.2.3 kV=0.48 Vminpu=0.8 Vmaxpu=1.2 model=1 kW=25.740300000000005 kvar=5.226790842317461 Phases=3

New Load.load_p6ulv8203_1 conn=wye bus1=p6ulv8203.1 kV=0.12 Vminpu=0.8 Vmaxpu=1.2 model=1 kW=4.09004 kvar=0.8305180443395029 Phases=1

New Load.load_p6ulv8203_2 conn=wye bus1=p6ulv8203.2 kV=0.12 Vminpu=0.8 Vmaxpu=1.2 model=1 kW=4.09004 kvar=0.8305180443395029 Phases=1

New Load.load_p6ulv8204_1 conn=wye bus1=p6ulv8204.1 kV=0.12 Vminpu=0.8 Vmaxpu=1.2 model=1 kW=3.81004 kvar=0.7756529240625384 Phases=1

New Load.load_p6ulv8204_2 conn=wye bus1=p6ulv8204.2 kV=0.12 Vminpu=0.8 Vmaxpu=1.2 model=1 kW=3.81004 kvar=0.7756529240625384 Phases=1

New Load.load_p6ulv8205_1 conn=wye bus1=p6ulv8205.1 kV=0.12 Vminpu=0.8 Vmaxpu=1.2 model=1 kW=0.87501 kvar=0.17995472722251266 Phases=1

New Load.load_p6ulv8205_2 conn=wye bus1=p6ulv8205.2 kV=0.12 Vminpu=0.8 Vmaxpu=1.2 model=1 kW=0.87501 kvar=0.17995472722251266 Phases=1

New Load.load_p6ulv8206_1 conn=wye bus1=p6ulv8206.1 kV=0.12 Vminpu=0.8 Vmaxpu=1.2 model=1 kW=0.91501 kvar=0.18484098129866214 Phases=1

New Load.load_p6ulv8206_2 conn=wye bus1=p6ulv8206.2 kV=0.12 Vminpu=0.8 Vmaxpu=1.2 model=1 kW=0.91501 kvar=0.18484098129866214 Phases=1

New Load.load_p6ulv8207_1 conn=wye bus1=p6ulv8207.1 kV=0.12 Vminpu=0.8 Vmaxpu=1.2 model=1 kW=0.94501 kvar=0.18990552329105911 Phases=1

New Load.load_p6ulv8207_2 conn=wye bus1=p6ulv8207.2 kV=0.12 Vminpu=0.8 Vmaxpu=1.2 model=1 kW=0.94501 kvar=0.18990552329105911 Phases=1

New Load.load_p6ulv8208_1 conn=wye bus1=p6ulv8208.1 kV=0.12 Vminpu=0.8 Vmaxpu=1.2 model=1 kW=1.11001 kvar=0.2248156820503273 Phases=1

New Load.load_p6ulv8208_2 conn=wye bus1=p6ulv8208.2 kV=0.12 Vminpu=0.8 Vmaxpu=1.2 model=1 kW=1.11001 kvar=0.2248156820503273 Phases=1

New Load.load_p6ulv8209_1 conn=wye bus1=p6ulv8209.1 kV=0.12 Vminpu=0.8 Vmaxpu=1.2 model=1 kW=1.21001 kvar=0.24506916463609923 Phases=1

New Load.load_p6ulv8209_2 conn=wye bus1=p6ulv8209.2 kV=0.12 Vminpu=0.8 Vmaxpu=1.2 model=1 kW=1.21001 kvar=0.24506916463609923 Phases=1

New Load.load_p6ulv8210_1 conn=wye bus1=p6ulv8210.1 kV=0.12 Vminpu=0.8 Vmaxpu=1.2 model=1 kW=1.260015 kvar=0.2551969186031145 Phases=1

New Load.load_p6ulv8210_2 conn=wye bus1=p6ulv8210.2 kV=0.12 Vminpu=0.8 Vmaxpu=1.2 model=1 kW=1.260015 kvar=0.2551969186031145 Phases=1

New Load.load_p6ulv8211_1 conn=wye bus1=p6ulv8211.1 kV=0.12 Vminpu=0.8 Vmaxpu=1.2 model=1 kW=1.530015 kvar=0.3098813215846988 Phases=1

New Load.load_p6ulv8211_2 conn=wye bus1=p6ulv8211.2 kV=0.12 Vminpu=0.8 Vmaxpu=1.2 model=1 kW=1.530015 kvar=0.3098813215846988 Phases=1

New Load.load_p6ulv8212_1 conn=wye bus1=p6ulv8212.1 kV=0.12 Vminpu=0.8 Vmaxpu=1.2 model=1 kW=1.735015 kvar=0.35502410091724945 Phases=1

New Load.load_p6ulv8212_2 conn=wye bus1=p6ulv8212.2 kV=0.12 Vminpu=0.8 Vmaxpu=1.2 model=1 kW=1.735015 kvar=0.35502410091724945 Phases=1

New Load.load_p6ulv8213 conn=wye bus1=p6ulv8213.1.2.3 kV=0.48 Vminpu=0.8 Vmaxpu=1.2 model=1 kW=30.060300000000005 kvar=9.88034280690818 Phases=3

New Load.load_p6ulv8214_1 conn=wye bus1=p6ulv8214.1 kV=0.12 Vminpu=0.8 Vmaxpu=1.2 model=1 kW=0.745005 kvar=0.15010625560980215 Phases=1

New Load.load_p6ulv8214_2 conn=wye bus1=p6ulv8214.2 kV=0.12 Vminpu=0.8 Vmaxpu=1.2 model=1 kW=0.745005 kvar=0.15010625560980215 Phases=1

New Load.load_p6ulv8215_1 conn=wye bus1=p6ulv8215.1 kV=0.12 Vminpu=0.8 Vmaxpu=1.2 model=1 kW=0.76001 kvar=0.15512015006255728 Phases=1

New Load.load_p6ulv8215_2 conn=wye bus1=p6ulv8215.2 kV=0.12 Vminpu=0.8 Vmaxpu=1.2 model=1 kW=0.76001 kvar=0.15512015006255728 Phases=1

New Load.load_p6ulv8216_1 conn=wye bus1=p6ulv8216.1 kV=0.12 Vminpu=0.8 Vmaxpu=1.2 model=1 kW=1.295015 kvar=0.26498994881851273 Phases=1

New Load.load_p6ulv8216_2 conn=wye bus1=p6ulv8216.2 kV=0.12 Vminpu=0.8 Vmaxpu=1.2 model=1 kW=1.295015 kvar=0.26498994881851273 Phases=1

New Load.load_p6ulv8217_1 conn=wye bus1=p6ulv8217.1 kV=0.12 Vminpu=0.8 Vmaxpu=1.2 model=1 kW=0.635005 kvar=0.12993667443967802 Phases=1

New Load.load_p6ulv8217_2 conn=wye bus1=p6ulv8217.2 kV=0.12 Vminpu=0.8 Vmaxpu=1.2 model=1 kW=0.635005 kvar=0.12993667443967802 Phases=1

New Load.load_p6ulv8218_1 conn=wye bus1=p6ulv8218.1 kV=0.12 Vminpu=0.8 Vmaxpu=1.2 model=1 kW=1.585015 kvar=0.3201885531011673 Phases=1

New Load.load_p6ulv8218_2 conn=wye bus1=p6ulv8218.2 kV=0.12 Vminpu=0.8 Vmaxpu=1.2 model=1 kW=1.585015 kvar=0.3201885531011673 Phases=1

New Load.load_p6ulv8219_1 conn=wye bus1=p6ulv8219.1 kV=0.12 Vminpu=0.8 Vmaxpu=1.2 model=1 kW=1.550015 kvar=0.3147439698626161 Phases=1

New Load.load_p6ulv8219_2 conn=wye bus1=p6ulv8219.2 kV=0.12 Vminpu=0.8 Vmaxpu=1.2 model=1 kW=1.550015 kvar=0.3147439698626161 Phases=1

New Load.load_p6ulv8220_1 conn=wye bus1=p6ulv8220.1 kV=0.12 Vminpu=0.8 Vmaxpu=1.2 model=1 kW=0.3450035 kvar=0.07005594862404371 Phases=1

New Load.load_p6ulv8220_2 conn=wye bus1=p6ulv8220.2 kV=0.12 Vminpu=0.8 Vmaxpu=1.2 model=1 kW=0.3450035 kvar=0.07005594862404371 Phases=1

New Load.load_p6ulv8221_1 conn=wye bus1=p6ulv8221.1 kV=0.12 Vminpu=0.8 Vmaxpu=1.2 model=1 kW=0.79501 kvar=0.2598938765360946 Phases=1

New Load.load_p6ulv8221_2 conn=wye bus1=p6ulv8221.2 kV=0.12 Vminpu=0.8 Vmaxpu=1.2 model=1 kW=0.79501 kvar=0.2598938765360946 Phases=1

New Load.load_p6ulv11274_1 conn=wye bus1=p6ulv11274.1 kV=0.12 Vminpu=0.8 Vmaxpu=1.2 model=1 kW=0.96501 kvar=0.19494147098176193 Phases=1

New Load.load_p6ulv11274_2 conn=wye bus1=p6ulv11274.2 kV=0.12 Vminpu=0.8 Vmaxpu=1.2 model=1 kW=0.96501 kvar=0.19494147098176193 Phases=1

New Load.load_p6ulv11275_1 conn=wye bus1=p6ulv11275.1 kV=0.12 Vminpu=0.8 Vmaxpu=1.2 model=1 kW=0.685005 kvar=0.14016782808726178 Phases=1

New Load.load_p6ulv11275_2 conn=wye bus1=p6ulv11275.2 kV=0.12 Vminpu=0.8 Vmaxpu=1.2 model=1 kW=0.685005 kvar=0.14016782808726178 Phases=1

New Load.load_p6ulv11278_1 conn=wye bus1=p6ulv11278.1 kV=0.12 Vminpu=0.8 Vmaxpu=1.2 model=1 kW=0.685005 kvar=0.14016782808726178 Phases=1

New Load.load_p6ulv11278_2 conn=wye bus1=p6ulv11278.2 kV=0.12 Vminpu=0.8 Vmaxpu=1.2 model=1 kW=0.685005 kvar=0.14016782808726178 Phases=1

New Load.load_p6ulv11329_1 conn=wye bus1=p6ulv11329.1 kV=0.12 Vminpu=0.8 Vmaxpu=1.2 model=1 kW=1.315015 kvar=0.26495389657884716 Phases=1

New Load.load_p6ulv11329_2 conn=wye bus1=p6ulv11329.2 kV=0.12 Vminpu=0.8 Vmaxpu=1.2 model=1 kW=1.315015 kvar=0.26495389657884716 Phases=1

New Load.load_p6ulv11330_1 conn=wye bus1=p6ulv11330.1 kV=0.12 Vminpu=0.8 Vmaxpu=1.2 model=1 kW=0.605005 kvar=0.1199726326293307 Phases=1

New Load.load_p6ulv11330_2 conn=wye bus1=p6ulv11330.2 kV=0.12 Vminpu=0.8 Vmaxpu=1.2 model=1 kW=0.605005 kvar=0.1199726326293307 Phases=1

New Load.load_p6ulv11331_1 conn=wye bus1=p6ulv11331.1 kV=0.12 Vminpu=0.8 Vmaxpu=1.2 model=1 kW=0.93001 kvar=0.18981762182034304 Phases=1

New Load.load_p6ulv11331_2 conn=wye bus1=p6ulv11331.2 kV=0.12 Vminpu=0.8 Vmaxpu=1.2 model=1 kW=0.93001 kvar=0.18981762182034304 Phases=1

New Load.load_p6ulv11332_1 conn=wye bus1=p6ulv11332.1 kV=0.12 Vminpu=0.8 Vmaxpu=1.2 model=1 kW=1.03501 kvar=0.2101677443428008 Phases=1

New Load.load_p6ulv11332_2 conn=wye bus1=p6ulv11332.2 kV=0.12 Vminpu=0.8 Vmaxpu=1.2 model=1 kW=1.03501 kvar=0.2101677443428008 Phases=1

New Load.load_p6ulv11333_1 conn=wye bus1=p6ulv11333.1 kV=0.12 Vminpu=0.8 Vmaxpu=1.2 model=1 kW=0.685005 kvar=0.14016782808726178 Phases=1

New Load.load_p6ulv11333_2 conn=wye bus1=p6ulv11333.2 kV=0.12 Vminpu=0.8 Vmaxpu=1.2 model=1 kW=0.685005 kvar=0.14016782808726178 Phases=1

New Load.load_p6ulv11334 conn=wye bus1=p6ulv11334.1.2.3 kV=0.48 Vminpu=0.8 Vmaxpu=1.2 model=1 kW=90.0609 kvar=18.287645729493 Phases=3

New Load.load_p6ulv11335_1 conn=wye bus1=p6ulv11335.1 kV=0.12 Vminpu=0.8 Vmaxpu=1.2 model=1 kW=1.04501 kvar=0.21491696037165056 Phases=1

New Load.load_p6ulv11335_2 conn=wye bus1=p6ulv11335.2 kV=0.12 Vminpu=0.8 Vmaxpu=1.2 model=1 kW=1.04501 kvar=0.21491696037165056 Phases=1

New Load.load_p6ulv11336_1 conn=wye bus1=p6ulv11336.1 kV=0.12 Vminpu=0.8 Vmaxpu=1.2 model=1 kW=0.5300050000000001 kvar=0.11009305635610007 Phases=1

New Load.load_p6ulv11336_2 conn=wye bus1=p6ulv11336.2 kV=0.12 Vminpu=0.8 Vmaxpu=1.2 model=1 kW=0.5300050000000001 kvar=0.11009305635610007 Phases=1

New Load.load_p6ulv11337_1 conn=wye bus1=p6ulv11337.1 kV=0.12 Vminpu=0.8 Vmaxpu=1.2 model=1 kW=0.280003 kvar=0.0550742040398118 Phases=1

New Load.load_p6ulv11337_2 conn=wye bus1=p6ulv11337.2 kV=0.12 Vminpu=0.8 Vmaxpu=1.2 model=1 kW=0.280003 kvar=0.0550742040398118 Phases=1

New Load.load_p6ulv11338_1 conn=wye bus1=p6ulv11338.1 kV=0.12 Vminpu=0.8 Vmaxpu=1.2 model=1 kW=0.8600100000000002 kvar=0.17508196009045146 Phases=1

New Load.load_p6ulv11338_2 conn=wye bus1=p6ulv11338.2 kV=0.12 Vminpu=0.8 Vmaxpu=1.2 model=1 kW=0.8600100000000002 kvar=0.17508196009045146 Phases=1

New Load.load_p6ulv13840_1 conn=wye bus1=p6ulv13840.1 kV=0.12 Vminpu=0.8 Vmaxpu=1.2 model=1 kW=1.20001 kvar=0.2449253710827086 Phases=1

New Load.load_p6ulv13840_2 conn=wye bus1=p6ulv13840.2 kV=0.12 Vminpu=0.8 Vmaxpu=1.2 model=1 kW=1.20001 kvar=0.2449253710827086 Phases=1

New Load.load_p6ulv13841_1 conn=wye bus1=p6ulv13841.1 kV=0.12 Vminpu=0.8 Vmaxpu=1.2 model=1 kW=1.23501 kvar=0.2501325352825422 Phases=1

New Load.load_p6ulv13841_2 conn=wye bus1=p6ulv13841.2 kV=0.12 Vminpu=0.8 Vmaxpu=1.2 model=1 kW=1.23501 kvar=0.2501325352825422 Phases=1

New Load.load_p6ulv13842_1 conn=wye bus1=p6ulv13842.1 kV=0.12 Vminpu=0.8 Vmaxpu=1.2 model=1 kW=0.82001 kvar=0.16478601089290207 Phases=1

New Load.load_p6ulv13842_2 conn=wye bus1=p6ulv13842.2 kV=0.12 Vminpu=0.8 Vmaxpu=1.2 model=1 kW=0.82001 kvar=0.16478601089290207 Phases=1

New Load.load_p6ulv13843_1 conn=wye bus1=p6ulv13843.1 kV=0.12 Vminpu=0.8 Vmaxpu=1.2 model=1 kW=1.22001 kvar=0.25027554760115056 Phases=1

New Load.load_p6ulv13843_2 conn=wye bus1=p6ulv13843.2 kV=0.12 Vminpu=0.8 Vmaxpu=1.2 model=1 kW=1.22001 kvar=0.25027554760115056 Phases=1

New Load.load_p6ulv13844_1 conn=wye bus1=p6ulv13844.1 kV=0.12 Vminpu=0.8 Vmaxpu=1.2 model=1 kW=0.720005 kvar=0.14506916674429784 Phases=1

New Load.load_p6ulv13844_2 conn=wye bus1=p6ulv13844.2 kV=0.12 Vminpu=0.8 Vmaxpu=1.2 model=1 kW=0.720005 kvar=0.14506916674429784 Phases=1

New Load.load_p6ulv13845_1 conn=wye bus1=p6ulv13845.1 kV=0.12 Vminpu=0.8 Vmaxpu=1.2 model=1 kW=1.23501 kvar=0.2501325352825422 Phases=1

New Load.load_p6ulv13845_2 conn=wye bus1=p6ulv13845.2 kV=0.12 Vminpu=0.8 Vmaxpu=1.2 model=1 kW=1.23501 kvar=0.2501325352825422 Phases=1

New Load.load_p6ulv13846_1 conn=wye bus1=p6ulv13846.1 kV=0.12 Vminpu=0.8 Vmaxpu=1.2 model=1 kW=1.2550150000000002 kvar=0.2548416649755849 Phases=1

New Load.load_p6ulv13846_2 conn=wye bus1=p6ulv13846.2 kV=0.12 Vminpu=0.8 Vmaxpu=1.2 model=1 kW=1.2550150000000002 kvar=0.2548416649755849 Phases=1

New Load.load_p6ulv13847_1 conn=wye bus1=p6ulv13847.1 kV=0.12 Vminpu=0.8 Vmaxpu=1.2 model=1 kW=0.2350025 kvar=0.05000752979607615 Phases=1

New Load.load_p6ulv13847_2 conn=wye bus1=p6ulv13847.2 kV=0.12 Vminpu=0.8 Vmaxpu=1.2 model=1 kW=0.2350025 kvar=0.05000752979607615 Phases=1

New Load.load_p6ulv13943_1 conn=wye bus1=p6ulv13943.1 kV=0.12 Vminpu=0.8 Vmaxpu=1.2 model=1 kW=1.11501 kvar=0.22524294003106118 Phases=1

New Load.load_p6ulv13943_2 conn=wye bus1=p6ulv13943.2 kV=0.12 Vminpu=0.8 Vmaxpu=1.2 model=1 kW=1.11501 kvar=0.22524294003106118 Phases=1

New Load.load_p6ulv13944_1 conn=wye bus1=p6ulv13944.1 kV=0.12 Vminpu=0.8 Vmaxpu=1.2 model=1 kW=0.91001 kvar=0.18478541176355026 Phases=1

New Load.load_p6ulv13944_2 conn=wye bus1=p6ulv13944.2 kV=0.12 Vminpu=0.8 Vmaxpu=1.2 model=1 kW=0.91001 kvar=0.18478541176355026 Phases=1

New Load.load_p6ulv13946_1 conn=wye bus1=p6ulv13946.1 kV=0.12 Vminpu=0.8 Vmaxpu=1.2 model=1 kW=0.81501 kvar=0.1650679084223 Phases=1

New Load.load_p6ulv13946_2 conn=wye bus1=p6ulv13946.2 kV=0.12 Vminpu=0.8 Vmaxpu=1.2 model=1 kW=0.81501 kvar=0.1650679084223 Phases=1

New Load.load_p6ulv13947_1 conn=wye bus1=p6ulv13947.1 kV=0.12 Vminpu=0.8 Vmaxpu=1.2 model=1 kW=0.4550045 kvar=0.08998408869105651 Phases=1

New Load.load_p6ulv13947_2 conn=wye bus1=p6ulv13947.2 kV=0.12 Vminpu=0.8 Vmaxpu=1.2 model=1 kW=0.4550045 kvar=0.08998408869105651 Phases=1

New Load.load_p6ulv13948_1 conn=wye bus1=p6ulv13948.1 kV=0.12 Vminpu=0.8 Vmaxpu=1.2 model=1 kW=0.78001 kvar=0.16001297520870603 Phases=1

New Load.load_p6ulv13948_2 conn=wye bus1=p6ulv13948.2 kV=0.12 Vminpu=0.8 Vmaxpu=1.2 model=1 kW=0.78001 kvar=0.16001297520870603 Phases=1

New Load.load_p6ulv13949_1 conn=wye bus1=p6ulv13949.1 kV=0.12 Vminpu=0.8 Vmaxpu=1.2 model=1 kW=0.83501 kvar=0.1699924274079695 Phases=1

New Load.load_p6ulv13949_2 conn=wye bus1=p6ulv13949.2 kV=0.12 Vminpu=0.8 Vmaxpu=1.2 model=1 kW=0.83501 kvar=0.1699924274079695 Phases=1

New Load.load_p6ulv13950_1 conn=wye bus1=p6ulv13950.1 kV=0.12 Vminpu=0.8 Vmaxpu=1.2 model=1 kW=0.375004 kvar=0.07496236221505388 Phases=1

...